<?xml version="1.0" encoding="UTF-8"?>

<!-- generated on 2025-06-26 15:42:04 by Eclipse SUMO netedit Version 1.23.1
<neteditConfiguration xmlns:xsi="http://www.w3.org/2001/XMLSchema-instance" xsi:noNamespaceSchemaLocation="http://sumo.dlr.de/xsd/neteditConfiguration.xsd">

    <input>
        <sumocfg-file value="/home/homelessamy/Desktop/sumo/testing/test.sumocfg"/>
        <route-files value="/home/homelessamy/Desktop/sumo/testing/test.rou.xml"/>
        <sumo-net-file value="/home/homelessamy/Desktop/sumo/testing/test.net.xml"/>
    </input>

    <output>
        <output-file value="/home/homelessamy/Desktop/sumo/testing/test.net.xml"/>
    </output>

    <processing>
        <geometry.min-radius.fix.railways value="false"/>
        <geometry.avoid-overlap value="false"/>
        <geometry.max-grade.fix value="false"/>
        <offset.disable-normalization value="true"/>
        <lefthand value="0"/>
    </processing>

    <junctions>
        <no-internal-links value="false"/>
        <no-turnarounds value="true"/>
        <junctions.corner-detail value="5"/>
        <junctions.limit-turn-speed value="5.50"/>
        <rectangular-lane-cut value="0"/>
    </junctions>

    <pedestrian>
        <walkingareas value="0"/>
    </pedestrian>

    <netedit>
        <new-network value="false"/>
    </netedit>

</neteditConfiguration>
-->

<net version="1.20" junctionCornerDetail="5" limitTurnSpeed="5.50" avoidOverlap="0" xmlns:xsi="http://www.w3.org/2001/XMLSchema-instance" xsi:noNamespaceSchemaLocation="http://sumo.dlr.de/xsd/net_file.xsd">

    <location netOffset="0.00,0.00" convBoundary="-307.78,-447.26,929.56,343.26" origBoundary="-10000000000.00,-10000000000.00,10000000000.00,10000000000.00" projParameter="!"/>

    <edge id=":J0_w0" function="walkingarea">
        <lane id=":J0_w0_0" index="0" allow="pedestrian" speed="2.78" length="9.60" width="12.80" shape="-274.38,343.26 -274.81,336.87 -273.95,349.65 -274.38,343.26"/>
    </edge>
    <edge id=":J1_w0" function="walkingarea">
        <lane id=":J1_w0_0" index="0" allow="pedestrian" speed="2.78" length="9.60" width="12.80" shape="904.51,264.04 904.94,270.43 904.08,257.65 904.51,264.04"/>
    </edge>
    <edge id=":J15_0" function="internal">
        <lane id=":J15_0_0" index="0" speed="6.08" length="7.58" shape="-258.92,286.43 -260.99,286.41 -262.58,285.74 -263.68,284.42 -264.30,282.44"/>
        <lane id=":J15_0_1" index="1" speed="3.91" length="2.53" shape="-259.35,283.26 -260.04,283.25 -260.57,283.03 -260.93,282.59 -261.14,281.93"/>
    </edge>
    <edge id=":J15_w0" function="walkingarea">
        <lane id=":J15_w0_0" index="0" allow="pedestrian" speed="2.78" length="6.69" width="3.20" shape="-258.71,288.01 -259.56,281.67 -265.88,282.70 -264.64,286.02 -263.58,287.10 -262.25,287.79 -260.62,288.10"/>
    </edge>
    <edge id=":J16_0" function="internal">
        <lane id=":J16_0_0" index="0" speed="6.08" length="7.81" shape="-274.57,219.42 -274.61,217.28 -273.95,215.64 -272.60,214.52 -270.54,213.90"/>
        <lane id=":J16_0_1" index="1" speed="3.90" length="2.60" shape="-271.41,218.91 -271.42,218.19 -271.20,217.65 -270.75,217.27 -270.07,217.07"/>
    </edge>
    <edge id=":J16_w0" function="walkingarea">
        <lane id=":J16_w0_0" index="0" allow="pedestrian" speed="2.78" length="6.83" width="3.20" shape="-276.15,219.68 -269.83,218.65 -270.78,212.32 -274.22,213.57 -275.33,214.64 -276.01,216.02 -276.29,217.70"/>
    </edge>
    <edge id=":J24_0" function="internal">
        <lane id=":J24_0_0" index="0" disallow="all" speed="5.56" length="6.02" width="2.00" shape="-280.25,165.01 -282.02,165.00 -283.36,164.52 -284.29,163.57 -284.79,162.15"/>
    </edge>
    <edge id=":J28_w0" function="walkingarea">
        <lane id=":J28_w0_0" index="0" allow="pedestrian" speed="2.78" length="8.40" width="2.00" shape="-308.19,0.06 -308.45,-1.93 -307.11,8.39 -307.37,6.40"/>
    </edge>
    <edge id=":J3_0" function="internal">
        <lane id=":J3_0_0" index="0" disallow="pedestrian" speed="7.10" length="10.98" shape="-192.26,-311.64 -192.16,-314.65 -191.13,-316.90 -189.15,-318.40 -186.24,-319.15"/>
    </edge>
    <edge id=":J3_1" function="internal">
        <lane id=":J3_1_0" index="0" disallow="pedestrian" speed="5.37" length="5.81" shape="-185.89,-315.96 -187.43,-315.57 -188.48,-314.78 -189.03,-313.58 -189.08,-311.99"/>
    </edge>
    <edge id=":J3_w0" function="walkingarea">
        <lane id=":J3_w0_0" index="0" allow="pedestrian" speed="2.78" length="13.30" width="2.00" shape="-186.41,-320.74 -186.63,-322.72 -189.76,-322.09 -192.25,-320.95 -194.11,-319.29 -195.32,-317.12 -195.90,-314.44 -195.84,-311.24 -193.85,-311.46 -193.90,-314.04 -193.43,-316.21 -192.45,-317.96 -190.95,-319.30 -188.94,-320.23"/>
    </edge>
    <edge id=":J3_w1" function="walkingarea">
        <lane id=":J3_w1_0" index="0" allow="pedestrian" speed="2.78" length="1.42" width="2.00" shape="-187.49,-312.17 -185.50,-312.39 -185.72,-314.37 -186.32,-314.25 -186.80,-314.03 -187.15,-313.71 -187.39,-313.30 -187.50,-312.78"/>
    </edge>
    <edge id=":J36_0" function="internal">
        <lane id=":J36_0_0" index="0" disallow="pedestrian" speed="6.50" length="8.93" shape="59.64,-337.22 59.01,-339.58 57.78,-341.19 55.94,-342.03 53.50,-342.11"/>
    </edge>
    <edge id=":J36_1" function="internal">
        <lane id=":J36_1_0" index="0" disallow="pedestrian" speed="8.02" length="14.02" shape="59.64,-337.22 59.73,-341.07 61.00,-343.98 63.47,-345.98 67.13,-347.05"/>
    </edge>
    <edge id=":J36_2" function="internal">
        <lane id=":J36_2_0" index="0" disallow="pedestrian" speed="6.53" length="8.95" shape="67.58,-343.89 65.25,-343.20 63.68,-341.93 62.87,-340.06 62.82,-337.60"/>
    </edge>
    <edge id=":J36_3" function="internal">
        <lane id=":J36_3_0" index="0" disallow="pedestrian" speed="13.89" length="14.20" shape="67.58,-343.89 53.50,-342.11"/>
    </edge>
    <edge id=":J36_4" function="internal">
        <lane id=":J36_4_0" index="0" disallow="pedestrian" speed="13.89" length="14.09" shape="53.15,-345.29 67.13,-347.05"/>
    </edge>
    <edge id=":J36_5" function="internal">
        <lane id=":J36_5_0" index="0" disallow="pedestrian" speed="7.99" length="3.85" shape="53.15,-345.29 56.99,-345.16"/>
    </edge>
    <edge id=":J36_6" function="internal">
        <lane id=":J36_6_0" index="0" disallow="pedestrian" speed="7.99" length="10.21" shape="56.99,-345.16 59.89,-343.84 61.83,-341.32 62.82,-337.60"/>
    </edge>
    <edge id=":J36_w0" function="walkingarea">
        <lane id=":J36_w0_0" index="0" allow="pedestrian" speed="2.78" length="4.19" width="2.00" shape="53.67,-340.52 53.89,-338.53 56.07,-336.80 58.05,-337.03 57.80,-338.22 57.36,-339.16 56.73,-339.86 55.90,-340.32 54.88,-340.54"/>
    </edge>
    <edge id=":J36_w1" function="walkingarea">
        <lane id=":J36_w1_0" index="0" allow="pedestrian" speed="2.78" length="4.25" width="2.00" shape="64.41,-337.79 66.40,-338.03 68.10,-340.32 67.81,-342.30 66.64,-342.02 65.71,-341.55 65.02,-340.90 64.58,-340.05 64.37,-339.02"/>
    </edge>
    <edge id=":J36_w2" function="walkingarea">
        <lane id=":J36_w2_0" index="0" allow="pedestrian" speed="2.78" length="14.00" width="2.00" shape="66.90,-348.64 66.62,-350.62 52.76,-348.87 52.98,-346.88"/>
    </edge>
    <edge id=":J37_w0" function="walkingarea">
        <lane id=":J37_w0_0" index="0" allow="pedestrian" speed="2.78" length="8.40" width="2.00" shape="100.26,-57.99 100.07,-59.98 101.05,-49.62 100.86,-51.61"/>
    </edge>
    <edge id=":J38_0" function="internal">
        <lane id=":J38_0_0" index="0" disallow="pedestrian" speed="13.89" length="9.18" shape="239.90,-66.47 230.76,-65.58"/>
    </edge>
    <edge id=":J38_1" function="internal">
        <lane id=":J38_1_0" index="0" disallow="pedestrian" speed="7.29" length="2.54" shape="239.90,-66.47 237.38,-66.76"/>
    </edge>
    <edge id=":J38_4" function="internal">
        <lane id=":J38_4_0" index="0" disallow="pedestrian" speed="7.29" length="9.22" shape="237.38,-66.76 235.47,-68.23 234.18,-70.87 233.50,-74.68"/>
    </edge>
    <edge id=":J38_2" function="internal">
        <lane id=":J38_2_0" index="0" disallow="pedestrian" speed="6.00" length="3.33" shape="230.46,-68.77 231.97,-69.26 232.97,-70.41 233.03,-70.63"/>
    </edge>
    <edge id=":J38_3" function="internal">
        <lane id=":J38_3_0" index="0" disallow="pedestrian" speed="13.89" length="9.15" shape="230.46,-68.77 239.57,-69.65"/>
    </edge>
    <edge id=":J38_5" function="internal">
        <lane id=":J38_5_0" index="0" disallow="pedestrian" speed="6.00" length="4.12" shape="233.03,-70.63 233.48,-72.22 233.50,-74.68"/>
    </edge>
    <edge id=":J38_c0" function="crossing" crossingEdges="E25 -E25">
        <lane id=":J38_c0_0" index="0" allow="pedestrian" speed="2.78" length="6.40" width="4.00" shape="237.42,-71.04 238.07,-64.67" outlineShape="239.40,-71.24 240.06,-64.88 236.29,-62.50 240.27,-62.89 240.07,-64.78 236.08,-64.47 235.43,-70.83 235.58,-72.98 235.72,-72.65 236.34,-71.93 237.16,-71.46 238.18,-71.23"/>
    </edge>
    <edge id=":J38_c1" function="crossing" crossingEdges="E21">
        <lane id=":J38_c1_0" index="0" allow="pedestrian" speed="2.78" length="3.20" width="4.00" shape="232.07,-72.55 235.26,-72.82" outlineShape="231.90,-74.54 235.19,-74.82 235.30,-73.61 235.72,-72.65 236.34,-71.93 237.16,-71.46 237.51,-71.38 235.43,-70.83 232.24,-70.56 230.31,-70.39 230.89,-70.53 231.35,-70.91 231.67,-71.50 231.88,-72.30 231.95,-73.32"/>
    </edge>
    <edge id=":J38_c2" function="crossing" crossingEdges="-E16 E16">
        <lane id=":J38_c2_0" index="0" allow="pedestrian" speed="2.78" length="6.40" width="4.00" shape="232.91,-64.18 232.30,-70.55" outlineShape="230.92,-63.99 230.31,-70.36 230.30,-70.46 230.31,-70.36 230.89,-70.53 231.35,-70.91 231.67,-71.50 231.88,-72.30 231.92,-72.90 234.29,-70.74 234.90,-64.37 230.92,-63.99 231.11,-62.00 235.09,-62.39"/>
    </edge>
    <edge id=":J38_w0" function="walkingarea">
        <lane id=":J38_w0_0" index="0" allow="pedestrian" speed="2.78" length="5.56" width="4.00" shape="234.90,-64.37 230.92,-63.99 231.11,-62.00 240.27,-62.89 240.06,-64.88 236.08,-64.47"/>
    </edge>
    <edge id=":J38_w1" function="walkingarea">
        <lane id=":J38_w1_0" index="0" allow="pedestrian" speed="2.78" length="3.89" width="4.00" shape="239.40,-71.24 239.20,-73.23 237.08,-74.99 235.09,-74.82 235.30,-73.61 235.72,-72.65 236.34,-71.93 237.16,-71.46 238.18,-71.23"/>
    </edge>
    <edge id=":J38_w2" function="walkingarea">
        <lane id=":J38_w2_0" index="0" allow="pedestrian" speed="2.78" length="2.15" width="4.00" shape="231.90,-74.54 230.12,-72.35 230.31,-70.36 230.89,-70.53 231.35,-70.91 231.67,-71.50 231.88,-72.30 231.95,-73.32"/>
    </edge>
    <edge id=":J39_w0" function="walkingarea">
        <lane id=":J39_w0_0" index="0" allow="pedestrian" speed="2.78" length="0.10" width="3.20" shape="97.94,16.73 98.71,23.08"/>
    </edge>
    <edge id=":J40_w0" function="walkingarea">
        <lane id=":J40_w0_0" index="0" allow="pedestrian" speed="2.78" length="0.10" width="3.20" shape="21.82,32.36 21.05,26.01"/>
    </edge>
    <edge id=":J42_0" function="internal">
        <lane id=":J42_0_0" index="0" disallow="pedestrian" speed="3.90" length="2.58" shape="127.21,235.64 127.36,236.32 127.69,236.80 128.21,237.06 128.92,237.11"/>
    </edge>
    <edge id=":J42_w0" function="walkingarea">
        <lane id=":J42_w0_0" index="0" allow="pedestrian" speed="2.78" length="2.26" width="2.00" shape="125.61,235.76 123.62,235.91 123.88,237.48 124.41,238.74 125.20,239.69 126.27,240.34 127.59,240.67 129.18,240.70 129.04,238.70 128.06,238.69 127.24,238.48 126.59,238.08 126.10,237.50 125.77,236.72"/>
    </edge>
    <edge id=":J43_0" function="internal">
        <lane id=":J43_0_0" index="0" disallow="pedestrian" speed="3.91" length="2.54" shape="387.99,218.05 388.67,217.91 389.15,217.58 389.41,217.06 389.47,216.37"/>
    </edge>
    <edge id=":J43_w0" function="walkingarea">
        <lane id=":J43_w0_0" index="0" allow="pedestrian" speed="2.78" length="2.24" width="2.00" shape="388.11,219.65 388.26,221.64 389.80,221.39 391.05,220.87 392.00,220.09 392.65,219.05 393.01,217.75 393.07,216.18 391.07,216.29 391.04,217.25 390.82,218.05 390.41,218.69 389.83,219.17 389.06,219.49"/>
    </edge>
    <edge id=":J45_0" function="internal">
        <lane id=":J45_0_0" index="0" disallow="pedestrian" speed="5.36" length="5.87" shape="221.31,-218.00 221.41,-219.60 221.99,-220.79 223.07,-221.55 224.65,-221.89"/>
    </edge>
    <edge id=":J45_w0" function="walkingarea">
        <lane id=":J45_w0_0" index="0" allow="pedestrian" speed="2.78" length="5.13" width="2.00" shape="222.91,-218.13 224.90,-218.30 224.76,-220.30 224.15,-220.20 223.65,-219.99 223.28,-219.68 223.04,-219.27 222.91,-218.75"/>
    </edge>
    <edge id=":J46_0" function="internal">
        <lane id=":J46_0_0" index="0" disallow="pedestrian" speed="7.61" length="12.62" shape="504.14,-242.13 508.64,-242.16 511.92,-241.46 513.97,-240.06 514.80,-237.93"/>
    </edge>
    <edge id=":J46_w0" function="walkingarea">
        <lane id=":J46_w0_0" index="0" allow="pedestrian" speed="2.78" length="7.20" width="2.00" shape="509.22,-237.44 511.22,-237.62 513.21,-237.79"/>
    </edge>
    <edge id=":J47_w0" function="walkingarea">
        <lane id=":J47_w0_0" index="0" allow="pedestrian" speed="2.78" length="7.20" width="2.00" shape="521.45,-144.34 519.46,-144.16 517.47,-143.98"/>
    </edge>
    <edge id=":J48_w0" function="walkingarea">
        <lane id=":J48_w0_0" index="0" allow="pedestrian" speed="2.78" length="8.40" width="2.00" shape="364.05,-132.63 362.06,-132.42 372.40,-133.54 370.41,-133.33"/>
    </edge>
    <edge id=":J5_0" function="internal">
        <lane id=":J5_0_0" index="0" disallow="pedestrian" speed="5.37" length="5.80" shape="675.33,-107.84 674.95,-109.38 674.16,-110.43 672.97,-110.98 671.38,-111.05"/>
    </edge>
    <edge id=":J5_1" function="internal">
        <lane id=":J5_1_0" index="0" disallow="pedestrian" speed="7.11" length="10.95" shape="671.06,-114.23 674.05,-114.11 676.29,-113.06 677.78,-111.09 678.52,-108.18"/>
    </edge>
    <edge id=":J5_w0" function="walkingarea">
        <lane id=":J5_w0_0" index="0" allow="pedestrian" speed="2.78" length="1.41" width="2.00" shape="671.55,-109.45 671.75,-107.46 673.74,-107.67 673.62,-108.28 673.41,-108.75 673.09,-109.11 672.67,-109.35 672.16,-109.46"/>
    </edge>
    <edge id=":J5_w1" function="walkingarea">
        <lane id=":J5_w1_0" index="0" allow="pedestrian" speed="2.78" length="13.28" width="2.00" shape="680.11,-108.35 682.10,-108.56 681.48,-111.68 680.34,-114.17 678.70,-116.03 676.54,-117.26 673.87,-117.85 670.69,-117.81 670.89,-115.82 673.46,-115.85 675.62,-115.37 677.36,-114.38 678.69,-112.88 679.61,-110.87"/>
    </edge>
    <edge id=":J52_0" function="internal">
        <lane id=":J52_0_0" index="0" disallow="pedestrian" speed="8.67" length="16.91" shape="836.69,55.52 836.29,59.45 834.29,62.40 830.68,64.37 825.48,65.36"/>
    </edge>
    <edge id=":J52_1" function="internal">
        <lane id=":J52_1_0" index="0" disallow="pedestrian" speed="6.50" length="9.05" shape="825.22,62.17 827.64,61.61 829.29,60.42 830.19,58.58 830.32,56.10"/>
    </edge>
    <edge id=":J52_w0" function="walkingarea">
        <lane id=":J52_w0_0" index="0" allow="pedestrian" speed="2.78" length="18.57" width="2.00" shape="825.61,66.95 825.78,68.94 830.52,68.20 834.33,66.84 837.21,64.86 839.16,62.26 840.18,59.04 840.27,55.20 838.28,55.38 838.19,58.60 837.29,61.30 835.59,63.49 833.07,65.16 829.75,66.31"/>
    </edge>
    <edge id=":J52_w1" function="walkingarea">
        <lane id=":J52_w1_0" index="0" allow="pedestrian" speed="2.78" length="4.24" width="2.00" shape="828.72,56.24 826.73,56.42 824.92,58.58 825.08,60.57 826.30,60.36 827.27,59.94 827.99,59.32 828.48,58.50 828.72,57.47"/>
    </edge>
    <edge id=":J53_0" function="internal">
        <lane id=":J53_0_0" index="0" disallow="pedestrian" speed="6.48" length="9.11" shape="774.96,-439.80 774.31,-442.22 773.04,-443.83 771.16,-444.64 768.65,-444.64"/>
    </edge>
    <edge id=":J53_1" function="internal">
        <lane id=":J53_1_0" index="0" disallow="pedestrian" speed="3.65" length="1.31" shape="774.96,-439.80 775.55,-440.97"/>
    </edge>
    <edge id=":J53_4" function="internal">
        <lane id=":J53_4_0" index="0" disallow="pedestrian" speed="3.65" length="3.37" shape="775.55,-440.97 775.61,-441.09 776.36,-441.59 777.20,-441.29 778.14,-440.19"/>
    </edge>
    <edge id=":J53_2" function="internal">
        <lane id=":J53_2_0" index="0" disallow="pedestrian" speed="8.65" length="17.05" shape="768.20,-447.80 773.53,-448.00 777.49,-446.86 780.09,-444.38 781.32,-440.57"/>
        <lane id=":J53_2_1" index="1" disallow="pedestrian" speed="7.98" length="14.35" shape="768.20,-447.80 772.14,-447.80 775.11,-446.54 777.11,-444.00 778.14,-440.19"/>
    </edge>
    <edge id=":J53_w0" function="walkingarea">
        <lane id=":J53_w0_0" index="0" allow="pedestrian" speed="2.78" length="4.23" width="2.00" shape="768.88,-443.05 769.16,-441.07 771.38,-439.37 773.37,-439.61 773.11,-440.82 772.66,-441.78 772.00,-442.48 771.16,-442.93 770.12,-443.12"/>
    </edge>
    <edge id=":J53_w1" function="walkingarea">
        <lane id=":J53_w1_0" index="0" allow="pedestrian" speed="2.78" length="18.66" width="2.00" shape="782.90,-440.77 784.89,-441.01 783.99,-444.80 782.30,-447.76 779.82,-449.90 776.56,-451.22 772.52,-451.70 767.69,-451.37 767.97,-449.39 772.18,-449.69 775.70,-449.30 778.53,-448.21 780.67,-446.43 782.13,-443.95"/>
    </edge>
    <edge id=":J55_w0" function="walkingarea">
        <lane id=":J55_w0_0" index="0" allow="pedestrian" speed="2.78" length="8.40" width="2.00" shape="929.74,-6.67 929.85,-4.68 929.27,-15.06 929.38,-13.07"/>
    </edge>
    <edge id=":J57_w0" function="walkingarea">
        <lane id=":J57_w0_0" index="0" allow="pedestrian" speed="2.78" length="8.40" width="2.00" shape="924.31,-101.50 924.44,-99.50 923.78,-109.88 923.91,-107.88"/>
    </edge>
    <edge id=":J59_w0" function="walkingarea">
        <lane id=":J59_w0_0" index="0" allow="pedestrian" speed="2.78" length="0.10" width="3.20" shape="917.17,-209.17 917.58,-202.78"/>
    </edge>
    <edge id=":clusterJ10_J11_J58_0" function="internal">
        <lane id=":clusterJ10_J11_J58_0_0" index="0" disallow="pedestrian" speed="13.89" length="13.53" shape="805.12,-189.62 803.50,-203.05"/>
    </edge>
    <edge id=":clusterJ10_J11_J58_1" function="internal">
        <lane id=":clusterJ10_J11_J58_1_0" index="0" disallow="pedestrian" speed="8.52" length="3.22" shape="805.12,-189.62 805.55,-192.81"/>
    </edge>
    <edge id=":clusterJ10_J11_J58_5" function="internal">
        <lane id=":clusterJ10_J11_J58_5_0" index="0" disallow="pedestrian" speed="8.52" length="13.69" shape="805.55,-192.81 805.57,-192.93 807.80,-195.43 811.81,-197.09 817.62,-197.94"/>
    </edge>
    <edge id=":clusterJ10_J11_J58_2" function="internal">
        <lane id=":clusterJ10_J11_J58_2_0" index="0" disallow="pedestrian" speed="6.49" length="8.59" shape="810.00,-203.84 810.61,-202.48 812.04,-201.58 814.31,-201.13 817.41,-201.13"/>
    </edge>
    <edge id=":clusterJ10_J11_J58_3" function="internal">
        <lane id=":clusterJ10_J11_J58_3_0" index="0" disallow="pedestrian" speed="13.89" length="13.53" shape="810.00,-203.84 811.63,-190.40"/>
        <lane id=":clusterJ10_J11_J58_3_1" index="1" disallow="pedestrian" speed="13.89" length="13.53" shape="806.82,-203.45 808.45,-190.02"/>
    </edge>
    <edge id=":clusterJ10_J11_J58_w0" function="walkingarea">
        <lane id=":clusterJ10_J11_J58_w0_0" index="0" allow="pedestrian" speed="2.78" length="13.53" width="2.00" shape="801.91,-202.86 799.93,-202.62 801.55,-189.19 803.53,-189.43"/>
    </edge>
    <edge id=":clusterJ10_J11_J58_w1" function="walkingarea">
        <lane id=":clusterJ10_J11_J58_w1_0" index="0" allow="pedestrian" speed="2.78" length="10.04" width="3.20" shape="813.22,-190.59 815.20,-190.83 817.72,-196.34 817.51,-199.53 817.31,-202.73 813.57,-204.27 811.59,-204.03"/>
    </edge>
    <edge id=":clusterJ17_J21_J22_0" function="internal">
        <lane id=":clusterJ17_J21_J22_0_0" index="0" disallow="pedestrian" speed="13.89" length="10.08" shape="-136.46,200.68 -137.53,190.65"/>
    </edge>
    <edge id=":clusterJ17_J21_J22_1" function="internal">
        <lane id=":clusterJ17_J21_J22_1_0" index="0" disallow="pedestrian" speed="13.89" length="10.09" shape="-134.34,190.31 -133.27,200.34"/>
    </edge>
    <edge id=":clusterJ17_J21_J22_2" function="internal">
        <lane id=":clusterJ17_J21_J22_2_0" index="0" disallow="pedestrian" speed="6.07" length="7.48" shape="-142.87,194.77 -140.40,194.20 -138.69,193.32 -137.73,192.13 -137.53,190.65"/>
    </edge>
    <edge id=":clusterJ17_J21_J22_3" function="internal">
        <lane id=":clusterJ17_J21_J22_3_0" index="0" disallow="pedestrian" speed="6.82" length="10.36" shape="-142.40,197.94 -138.55,197.60 -135.75,197.88 -133.99,198.80 -133.27,200.34"/>
    </edge>
    <edge id=":clusterJ17_J21_J22_w0" function="walkingarea">
        <lane id=":clusterJ17_J21_J22_w0_0" index="0" allow="pedestrian" speed="2.78" length="7.36" width="3.20" shape="-139.12,190.82 -141.10,191.03 -143.11,193.19 -142.63,196.36 -142.16,199.52 -140.04,201.06 -138.05,200.85"/>
    </edge>
    <edge id=":clusterJ17_J21_J22_w1" function="walkingarea">
        <lane id=":clusterJ17_J21_J22_w1_0" index="0" allow="pedestrian" speed="2.78" length="10.09" width="2.00" shape="-131.68,200.17 -129.69,199.96 -130.76,189.92 -132.75,190.14"/>
    </edge>
    <edge id=":clusterJ20_clusterJ14_J19_0" function="internal">
        <lane id=":clusterJ20_clusterJ14_J19_0_0" index="0" disallow="pedestrian" speed="6.23" length="8.36" shape="-128.78,272.72 -129.36,271.17 -130.70,270.18 -132.81,269.77 -135.69,269.92"/>
    </edge>
    <edge id=":clusterJ20_clusterJ14_J19_1" function="internal">
        <lane id=":clusterJ20_clusterJ14_J19_1_0" index="0" disallow="pedestrian" speed="13.89" length="12.20" shape="-128.78,272.72 -130.07,260.59"/>
    </edge>
    <edge id=":clusterJ20_clusterJ14_J19_2" function="internal">
        <lane id=":clusterJ20_clusterJ14_J19_2_0" index="0" disallow="pedestrian" speed="13.89" length="12.20" shape="-126.89,260.25 -125.60,272.38"/>
    </edge>
    <edge id=":clusterJ20_clusterJ14_J19_3" function="internal">
        <lane id=":clusterJ20_clusterJ14_J19_3_0" index="0" disallow="pedestrian" speed="7.61" length="2.38" shape="-126.89,260.25 -127.26,262.60"/>
    </edge>
    <edge id=":clusterJ20_clusterJ14_J19_4" function="internal">
        <lane id=":clusterJ20_clusterJ14_J19_4_0" index="0" disallow="pedestrian" speed="7.61" length="10.09" shape="-127.26,262.60 -128.92,264.47 -131.87,265.85 -136.12,266.75"/>
    </edge>
    <edge id=":clusterJ20_clusterJ14_J19_w0" function="walkingarea">
        <lane id=":clusterJ20_clusterJ14_J19_w0_0" index="0" allow="pedestrian" speed="2.78" length="9.02" width="3.20" shape="-131.66,260.76 -133.65,260.97 -136.33,265.16 -135.91,268.33 -135.48,271.50 -132.36,273.10 -130.37,272.89"/>
    </edge>
    <edge id=":clusterJ20_clusterJ14_J19_w1" function="walkingarea">
        <lane id=":clusterJ20_clusterJ14_J19_w1_0" index="0" allow="pedestrian" speed="2.78" length="12.20" width="2.00" shape="-124.01,272.21 -122.02,272.00 -123.31,259.87 -125.30,260.08"/>
    </edge>
    <edge id=":clusterJ26_J62_J63_0" function="internal">
        <lane id=":clusterJ26_J62_J63_0_0" index="0" disallow="pedestrian" speed="6.46" length="9.18" shape="-151.45,60.22 -152.07,57.77 -153.33,56.14 -155.23,55.33 -157.76,55.35"/>
    </edge>
    <edge id=":clusterJ26_J62_J63_1" function="internal">
        <lane id=":clusterJ26_J62_J63_1_0" index="0" disallow="pedestrian" speed="13.89" length="9.20" shape="-151.45,60.22 -152.42,51.07"/>
    </edge>
    <edge id=":clusterJ26_J62_J63_2" function="internal">
        <lane id=":clusterJ26_J62_J63_2_0" index="0" disallow="pedestrian" speed="13.89" length="9.20" shape="-149.24,50.73 -148.27,59.88"/>
    </edge>
    <edge id=":clusterJ26_J62_J63_3" function="internal">
        <lane id=":clusterJ26_J62_J63_3_0" index="0" disallow="pedestrian" speed="7.05" length="1.57" shape="-149.24,50.73 -149.64,52.25"/>
    </edge>
    <edge id=":clusterJ26_J62_J63_4" function="internal">
        <lane id=":clusterJ26_J62_J63_4_0" index="0" disallow="pedestrian" speed="7.05" length="8.84" shape="-149.64,52.25 -151.19,53.53 -153.90,54.56 -157.76,55.35"/>
    </edge>
    <edge id=":clusterJ26_J62_J63_w0" function="walkingarea">
        <lane id=":clusterJ26_J62_J63_w0_0" index="0" allow="pedestrian" speed="2.78" length="4.21" width="2.00" shape="-157.52,56.93 -157.22,58.91 -155.03,60.60 -153.04,60.39 -153.29,59.16 -153.73,58.20 -154.38,57.49 -155.22,57.05 -156.27,56.86"/>
    </edge>
    <edge id=":clusterJ26_J62_J63_w1" function="walkingarea">
        <lane id=":clusterJ26_J62_J63_w1_0" index="0" allow="pedestrian" speed="2.78" length="9.20" width="2.00" shape="-146.68,59.71 -144.69,59.50 -145.66,50.35 -147.65,50.56"/>
    </edge>
    <edge id=":clusterJ27_J64_J65_0" function="internal">
        <lane id=":clusterJ27_J64_J65_0_0" index="0" disallow="pedestrian" speed="6.48" length="9.11" shape="-158.80,-8.88 -159.41,-11.31 -160.66,-12.94 -162.53,-13.77 -165.04,-13.80"/>
    </edge>
    <edge id=":clusterJ27_J64_J65_1" function="internal">
        <lane id=":clusterJ27_J64_J65_1_0" index="0" disallow="pedestrian" speed="13.89" length="14.42" shape="-158.80,-8.88 -160.35,-23.22"/>
    </edge>
    <edge id=":clusterJ27_J64_J65_2" function="internal">
        <lane id=":clusterJ27_J64_J65_2_0" index="0" disallow="pedestrian" speed="13.89" length="14.43" shape="-157.15,-23.57 -155.61,-9.22"/>
    </edge>
    <edge id=":clusterJ27_J64_J65_3" function="internal">
        <lane id=":clusterJ27_J64_J65_3_0" index="0" disallow="pedestrian" speed="8.08" length="4.06" shape="-157.15,-23.57 -157.28,-19.73 -157.37,-19.54"/>
    </edge>
    <edge id=":clusterJ27_J64_J65_6" function="internal">
        <lane id=":clusterJ27_J64_J65_6_0" index="0" disallow="pedestrian" speed="8.08" length="10.20" shape="-157.37,-19.54 -158.64,-16.82 -161.23,-14.84 -165.04,-13.80"/>
    </edge>
    <edge id=":clusterJ27_J64_J65_4" function="internal">
        <lane id=":clusterJ27_J64_J65_4_0" index="0" disallow="pedestrian" speed="6.59" length="9.16" shape="-165.45,-16.97 -162.99,-17.64 -161.32,-18.91 -160.44,-20.77 -160.35,-23.22"/>
    </edge>
    <edge id=":clusterJ27_J64_J65_5" function="internal">
        <lane id=":clusterJ27_J64_J65_5_0" index="0" disallow="pedestrian" speed="7.98" length="14.37" shape="-165.45,-16.97 -161.50,-16.92 -158.55,-15.62 -156.58,-13.05 -155.61,-9.22"/>
    </edge>
    <edge id=":clusterJ27_J64_J65_w0" function="walkingarea">
        <lane id=":clusterJ27_J64_J65_w0_0" index="0" allow="pedestrian" speed="2.78" length="4.23" width="2.00" shape="-164.83,-12.21 -164.57,-10.23 -162.38,-8.50 -160.39,-8.71 -160.63,-9.93 -161.07,-10.89 -161.71,-11.60 -162.55,-12.06 -163.59,-12.26"/>
    </edge>
    <edge id=":clusterJ27_J64_J65_w1" function="walkingarea">
        <lane id=":clusterJ27_J64_J65_w1_0" index="0" allow="pedestrian" speed="2.78" length="14.44" width="2.00" shape="-154.02,-9.39 -152.03,-9.60 -153.57,-23.97 -155.56,-23.75"/>
    </edge>
    <edge id=":clusterJ27_J64_J65_w2" function="walkingarea">
        <lane id=":clusterJ27_J64_J65_w2_0" index="0" allow="pedestrian" speed="2.78" length="4.43" width="2.00" shape="-161.94,-23.04 -163.92,-22.82 -165.92,-20.54 -165.66,-18.56 -164.40,-18.84 -163.40,-19.30 -162.65,-19.95 -162.16,-20.79 -161.92,-21.82"/>
    </edge>
    <edge id=":clusterJ2_J4_J54_0" function="internal">
        <lane id=":clusterJ2_J4_J54_0_0" index="0" disallow="pedestrian" speed="13.89" length="14.41" shape="825.56,3.49 824.27,-10.86"/>
    </edge>
    <edge id=":clusterJ2_J4_J54_1" function="internal">
        <lane id=":clusterJ2_J4_J54_1_0" index="0" disallow="pedestrian" speed="8.64" length="3.79" shape="825.56,3.49 825.94,-0.28"/>
    </edge>
    <edge id=":clusterJ2_J4_J54_7" function="internal">
        <lane id=":clusterJ2_J4_J54_7_0" index="0" disallow="pedestrian" speed="8.64" length="13.36" shape="825.94,-0.28 825.97,-0.54 828.00,-3.51 831.67,-5.43 836.96,-6.30"/>
    </edge>
    <edge id=":clusterJ2_J4_J54_2" function="internal">
        <lane id=":clusterJ2_J4_J54_2_0" index="0" disallow="pedestrian" speed="6.47" length="9.15" shape="837.14,-3.11 834.67,-2.61 832.98,-1.44 832.07,0.40 831.94,2.92"/>
    </edge>
    <edge id=":clusterJ2_J4_J54_3" function="internal">
        <lane id=":clusterJ2_J4_J54_3_0" index="0" disallow="pedestrian" speed="8.78" length="16.86" shape="837.14,-3.11 831.79,-3.34 827.87,-4.71 825.36,-7.21 824.27,-10.86"/>
    </edge>
    <edge id=":clusterJ2_J4_J54_4" function="internal">
        <lane id=":clusterJ2_J4_J54_4_0" index="0" disallow="pedestrian" speed="6.64" length="9.21" shape="830.64,-11.43 831.22,-9.07 832.47,-7.42 834.38,-6.50 836.96,-6.30"/>
    </edge>
    <edge id=":clusterJ2_J4_J54_5" function="internal">
        <lane id=":clusterJ2_J4_J54_5_0" index="0" disallow="pedestrian" speed="13.89" length="14.41" shape="830.64,-11.43 831.94,2.92"/>
        <lane id=":clusterJ2_J4_J54_5_1" index="1" disallow="pedestrian" speed="13.89" length="14.41" shape="827.46,-11.14 828.75,3.20"/>
    </edge>
    <edge id=":clusterJ2_J4_J54_w0" function="walkingarea">
        <lane id=":clusterJ2_J4_J54_w0_0" index="0" allow="pedestrian" speed="2.78" length="14.41" width="2.00" shape="822.67,-10.71 820.68,-10.53 821.98,3.81 823.97,3.63"/>
    </edge>
    <edge id=":clusterJ2_J4_J54_w1" function="walkingarea">
        <lane id=":clusterJ2_J4_J54_w1_0" index="0" allow="pedestrian" speed="2.78" length="4.22" width="2.00" shape="833.53,2.77 835.52,2.59 837.34,0.49 837.23,-1.51 836.00,-1.33 835.01,-0.93 834.27,-0.33 833.78,0.49 833.53,1.53"/>
    </edge>